*Heading
** Job name: Job-14 Model name: Model-1
** Generated by: Abaqus/CAE 2018
*Preprint, echo=NO, model=NO, history=NO, contact=NO
**
** PARTS
**
*Part, name=Part-1
*End Part
**  
**
** ASSEMBLY
**
*Assembly, name=Assembly
**  
*Instance, name=Part-1-1, part=Part-1
*Node
      1,         -35.,         -20.,          12.
      2,         -35.,  -19.2000008,          12.
      3,         -35.,  -18.3999996,          12.
      4,         -35.,  -17.6000004,          12.
      5,         -35.,  -16.7999992,          12.
      6,         -35.,         -16.,          12.
      7,         -35.,         -20.,        11.25
      8,         -35.,  -19.2000008,        11.25
      9,         -35.,  -18.3999996,        11.25
     10,         -35.,  -17.6000004,        11.25
     11,         -35.,  -16.7999992,        11.25
     12,         -35.,         -16.,        11.25
     13,         -35.,         -20.,         10.5
     14,         -35.,  -19.2000008,         10.5
     15,         -35.,  -18.3999996,         10.5
     16,         -35.,  -17.6000004,         10.5
     17,         -35.,  -16.7999992,         10.5
     18,         -35.,         -16.,         10.5
     19,         -35.,         -20.,         9.75
     20,         -35.,  -19.2000008,         9.75
** ... 48388 like lines cut
*Element, type=C3D20R
    1,     7,     8,     2,     1,   109,   110,   104,   103, 12856, 12855, 12854, 12853, 12857, 12858, 12859,
       12860, 12862, 12861, 12863, 12864
    2,     8,     9,     3,     2,   110,   111,   105,   104, 12867, 12866, 12865, 12855, 12868, 12869, 12870,
       12858, 12861, 12871, 12872, 12863
    3,     9,    10,     4,     3,   111,   112,   106,   105, 12875, 12874, 12873, 12866, 12876, 12877, 12878,
       12869, 12871, 12879, 12880, 12872
    4,    10,    11,     5,     4,   112,   113,   107,   106, 12883, 12882, 12881, 12874, 12884, 12885, 12886,
       12877, 12879, 12887, 12888, 12880
    5,    11,    12,     6,     5,   113,   114,   108,   107, 12891, 12890, 12889, 12882, 12892, 12893, 12894,
       12885, 12887, 12895, 12896, 12888
    6,    13,    14,     8,     7,   115,   116,   110,   109, 12899, 12898, 12856, 12897, 12900, 12901, 12857,
       12902, 12904, 12903, 12861, 12862
    7,    14,    15,     9,     8,   116,   117,   111,   110, 12906, 12905, 12867, 12898, 12907, 12908, 12868,
       12901, 12903, 12909, 12871, 12861
    8,    15,    16,    10,     9,   117,   118,   112,   111, 12911, 12910, 12875, 12905, 12912, 12913, 12876,
       12908, 12909, 12914, 12879, 12871
    9,    16,    17,    11,    10,   118,   119,   113,   112, 12916, 12915, 12883, 12910, 12917, 12918, 12884,
       12913, 12914, 12919, 12887, 12879
   10,    17,    18,    12,    11,   119,   120,   114,   113, 12921, 12920, 12891, 12915, 12922, 12923, 12892,
       12918, 12919, 12924, 12895, 12887
** ... 19980 like lines cut
*Nset, nset=Set-1, generate
     1,  48408,      1
*Elset, elset=Set-1, generate
     1,  10000,      1
** Section: Section-1
*Solid Section, elset=Set-1, material=Material-1
,
*End Instance
**  
*Nset, nset=Set-1, instance=Part-1-1
     1,     7,    13,    19,    25,    31,    37,    43,    49,    55,    61,    67,    73,    79,    85,    91
    97, 12853, 12897, 12925, 12953, 12981, 13009, 13037, 13065, 13093, 13121, 13149, 13177, 13205, 13233, 13261
 13289,
*Elset, elset=Set-1, instance=Part-1-1, generate
  1,  76,   5
*Nset, nset=Set-2, instance=Part-1-1
 12751, 12757, 12763, 12769, 12775, 12781, 12787, 12793, 12799, 12805, 12811, 12817, 12823, 12829, 12835, 12841
 12847, 48129, 48156, 48173, 48190, 48207, 48224, 48241, 48258, 48275, 48292, 48309, 48326, 48343, 48360, 48377
 48394,
*Elset, elset=Set-2, instance=Part-1-1, generate
 9921,  9996,     5
*Elset, elset=_Surf-1_S4, internal, instance=Part-1-1, generate
     5,  10000,      5
*Surface, type=ELEMENT, name=Surf-1
_Surf-1_S4, S4
*End Assembly
** 
** MATERIALS
** 
*Material, name=Material-1
*Elastic
211000., 0.3
** ----------------------------------------------------------------
** 
** STEP: Step-1
** 
*Step, name=Step-1, nlgeom=NO, inc=10000
*Static
0.01, 1., 1e-05, 0.1
** 
** BOUNDARY CONDITIONS
** 
** Name: BC-1 Type: Symmetry/Antisymmetry/Encastre
*Boundary
Set-1, ENCASTRE
** Name: BC-2 Type: Displacement/Rotation
*Boundary
Set-2, 2, 2
Set-2, 3, 3
Set-2, 4, 4
Set-2, 5, 5
Set-2, 6, 6
** 
** LOADS
** 
** Name: Load-1   Type: Pressure
*Dsload
Surf-1, P, 1293.
** 
** OUTPUT REQUESTS
** 
*Restart, write, frequency=0
** 
** FIELD OUTPUT: F-Output-2
** 
*Output, field
*Element Output, directions=YES
S, 
** 
** FIELD OUTPUT: F-Output-1
** 
*Output, field, variable=PRESELECT
** 
** HISTORY OUTPUT: H-Output-1
** 
*Output, history, variable=PRESELECT
*End Step
