*Heading
** Job name: Job-15 Model name: Model-1
** Generated by: Abaqus/CAE 2018
*Preprint, echo=NO, model=NO, history=NO, contact=NO
**
** PARTS
**
*Part, name=Part-1
*End Part
**  
**
** ASSEMBLY
**
*Assembly, name=Assembly
**  
*Instance, name=Part-1-1, part=Part-1
*Node
      1,         -35.,         -20.,          12.
      2,         -35.,   -18.666666,          12.
      3,         -35.,   -17.333334,          12.
      4,         -35.,         -16.,          12.
      5,         -35.,         -20.,   10.8000002
      6,         -35.,   -18.666666,   10.8000002
      7,         -35.,   -17.333334,   10.8000002
      8,         -35.,         -16.,   10.8000002
      9,         -35.,         -20.,   9.60000038
     10,         -35.,   -18.666666,   9.60000038
     11,         -35.,   -17.333334,   9.60000038
     12,         -35.,         -16.,   9.60000038
     13,         -35.,         -20.,   8.39999962
     14,         -35.,   -18.666666,   8.39999962
     15,         -35.,   -17.333334,   8.39999962
     16,         -35.,         -16.,   8.39999962
     17,         -35.,         -20.,   7.19999981
     18,         -35.,   -18.666666,   7.19999981
     19,         -35.,   -17.333334,   7.19999981
     20,         -35.,         -16.,   7.19999981
** ... 12172 like lines cut
*Element, type=C3D20R
   1,     5,     6,     2,     1,    49,    50,    46,    45,  3348,  3347,  3346,  3345,  3349,  3350,  3351,
       3352,  3354,  3353,  3355,  3356
   2,     6,     7,     3,     2,    50,    51,    47,    46,  3359,  3358,  3357,  3347,  3360,  3361,  3362,
       3350,  3353,  3363,  3364,  3355
   3,     7,     8,     4,     3,    51,    52,    48,    47,  3367,  3366,  3365,  3358,  3368,  3369,  3370,
       3361,  3363,  3371,  3372,  3364
   4,     9,    10,     6,     5,    53,    54,    50,    49,  3375,  3374,  3348,  3373,  3376,  3377,  3349,
       3378,  3380,  3379,  3353,  3354
   5,    10,    11,     7,     6,    54,    55,    51,    50,  3382,  3381,  3359,  3374,  3383,  3384,  3360,
       3377,  3379,  3385,  3363,  3353
   6,    11,    12,     8,     7,    55,    56,    52,    51,  3387,  3386,  3367,  3381,  3388,  3389,  3368,
       3384,  3385,  3390,  3371,  3363
   7,    13,    14,    10,     9,    57,    58,    54,    53,  3393,  3392,  3375,  3391,  3394,  3395,  3376,
       3396,  3398,  3397,  3379,  3380
   8,    14,    15,    11,    10,    58,    59,    55,    54,  3400,  3399,  3382,  3392,  3401,  3402,  3383,
       3395,  3397,  3403,  3385,  3379
   9,    15,    16,    12,    11,    59,    60,    56,    55,  3405,  3404,  3387,  3399,  3406,  3407,  3388,
       3402,  3403,  3408,  3390,  3385
  10,    17,    18,    14,    13,    61,    62,    58,    57,  3411,  3410,  3393,  3409,  3412,  3413,  3394,
       3414,  3416,  3415,  3397,  3398
** ... 4480 like lines cut
*Nset, nset=Set-1, generate
     1,  12192,      1
*Elset, elset=Set-1, generate
    1,  2250,     1
** Section: Section-1
*Solid Section, elset=Set-1, material=Material-1
,
*End Instance
**  
*Nset, nset=Set-1, instance=Part-1-1
    1,    5,    9,   13,   17,   21,   25,   29,   33,   37,   41, 3345, 3373, 3391, 3409, 3427
 3445, 3463, 3481, 3499, 3517
*Elset, elset=Set-1, instance=Part-1-1, generate
  1,  28,   3
*Nset, nset=Set-2, instance=Part-1-1
  3301,  3305,  3309,  3313,  3317,  3321,  3325,  3329,  3333,  3337,  3341, 12079, 12096, 12107, 12118, 12129
 12140, 12151, 12162, 12173, 12184
*Elset, elset=Set-2, instance=Part-1-1, generate
 2221,  2248,     3
*Elset, elset=_Surf-1_S4, internal, instance=Part-1-1, generate
    3,  2250,     3
*Surface, type=ELEMENT, name=Surf-1
_Surf-1_S4, S4
*End Assembly
** 
** MATERIALS
** 
*Material, name=Material-1
*Elastic
211000., 0.3
** ----------------------------------------------------------------
** 
** STEP: Step-1
** 
*Step, name=Step-1, nlgeom=NO, inc=10000
*Static
0.01, 1., 1e-05, 0.1
** 
** BOUNDARY CONDITIONS
** 
** Name: BC-1 Type: Symmetry/Antisymmetry/Encastre
*Boundary
Set-1, ENCASTRE
** Name: BC-2 Type: Displacement/Rotation
*Boundary
Set-2, 2, 2
Set-2, 3, 3
Set-2, 4, 4
Set-2, 5, 5
Set-2, 6, 6
** 
** LOADS
** 
** Name: Load-1   Type: Pressure
*Dsload
Surf-1, P, 1293.
** 
** OUTPUT REQUESTS
** 
*Restart, write, frequency=0
** 
** FIELD OUTPUT: F-Output-2
** 
*Output, field
*Element Output, directions=YES
S, 
** 
** FIELD OUTPUT: F-Output-1
** 
*Output, field, variable=PRESELECT
** 
** HISTORY OUTPUT: H-Output-1
** 
*Output, history, variable=PRESELECT
*End Step
