*Heading
** Job name: Job-6 Model name: Model-1
** Generated by: Abaqus/CAE 2018
*Preprint, echo=NO, model=NO, history=NO, contact=NO
**
** PARTS
**
*Part, name=Part-1
*End Part
**  
**
** ASSEMBLY
**
*Assembly, name=Assembly
**  
*Instance, name=Part-1-1, part=Part-1
*Node
      1,         -35.,         -20.,          12.
      2,         -35.,         -19.,          12.
      3,         -35.,         -18.,          12.
      4,         -35.,         -17.,          12.
      5,         -35.,         -16.,          12.
      6,         -35.,         -20.,          11.
      7,         -35.,         -19.,          11.
      8,         -35.,         -18.,          11.
      9,         -35.,         -17.,          11.
     10,         -35.,         -16.,          11.
     11,         -35.,         -20.,          10.
     12,         -35.,         -19.,          10.
     13,         -35.,         -18.,          10.
     14,         -35.,         -17.,          10.
     15,         -35.,         -16.,          10.
     16,         -35.,         -20.,           9.
     17,         -35.,         -19.,           9.
     18,         -35.,         -18.,           9.
     19,         -35.,         -17.,           9.
     20,         -35.,         -16.,           9.
** ... 6155 like lines cut
*Element, type=C3D8R
   1,    6,    7,    2,    1,   71,   72,   67,   66
   2,    7,    8,    3,    2,   72,   73,   68,   67
   3,    8,    9,    4,    3,   73,   74,   69,   68
   4,    9,   10,    5,    4,   74,   75,   70,   69
   5,   11,   12,    7,    6,   76,   77,   72,   71
   6,   12,   13,    8,    7,   77,   78,   73,   72
   7,   13,   14,    9,    8,   78,   79,   74,   73
   8,   14,   15,   10,    9,   79,   80,   75,   74
   9,   16,   17,   12,   11,   81,   82,   77,   76
  10,   17,   18,   13,   12,   82,   83,   78,   77
  11,   18,   19,   14,   13,   83,   84,   79,   78
  12,   19,   20,   15,   14,   84,   85,   80,   79
  13,   21,   22,   17,   16,   86,   87,   82,   81
  14,   22,   23,   18,   17,   87,   88,   83,   82
  15,   23,   24,   19,   18,   88,   89,   84,   83
  16,   24,   25,   20,   19,   89,   90,   85,   84
  17,   26,   27,   22,   21,   91,   92,   87,   86
  18,   27,   28,   23,   22,   92,   93,   88,   87
  19,   28,   29,   24,   23,   93,   94,   89,   88
  20,   29,   30,   25,   24,   94,   95,   90,   89
** ... 4492 like lines cut
*Nset, nset=Set-1, generate
    1,  6175,     1
*Elset, elset=Set-1, generate
    1,  4512,     1
** Section: Section-1
*Solid Section, elset=Set-1, material=Material-1
,
*End Instance
**  
*Nset, nset=Set-1, instance=Part-1-1, generate
  1,  61,   5
*Elset, elset=Set-1, instance=Part-1-1, generate
  1,  45,   4
*Nset, nset=Set-2, instance=Part-1-1, generate
 6111,  6171,     5
*Elset, elset=Set-2, instance=Part-1-1, generate
 4465,  4509,     4
*Elset, elset=_Surf-1_S4, internal, instance=Part-1-1, generate
    4,  4512,     4
*Surface, type=ELEMENT, name=Surf-1
_Surf-1_S4, S4
*End Assembly
** 
** MATERIALS
** 
*Material, name=Material-1
*Elastic
211000., 0.3
** ----------------------------------------------------------------
** 
** STEP: Step-1
** 
*Step, name=Step-1, nlgeom=NO, inc=10000
*Static
0.01, 1., 1e-05, 0.1
** 
** BOUNDARY CONDITIONS
** 
** Name: BC-1 Type: Symmetry/Antisymmetry/Encastre
*Boundary
Set-1, ENCASTRE
** Name: BC-2 Type: Displacement/Rotation
*Boundary
Set-2, 2, 2
Set-2, 3, 3
Set-2, 4, 4
Set-2, 5, 5
Set-2, 6, 6
** 
** LOADS
** 
** Name: Load-1   Type: Pressure
*Dsload
Surf-1, P, 1293.
** 
** OUTPUT REQUESTS
** 
*Restart, write, frequency=0
** 
** FIELD OUTPUT: F-Output-2
** 
*Output, field
*Element Output, directions=YES
S, 
** 
** FIELD OUTPUT: F-Output-1
** 
*Output, field, variable=PRESELECT
** 
** HISTORY OUTPUT: H-Output-1
** 
*Output, history, variable=PRESELECT
*End Step
