*Heading
** Job name: Job-7 Model name: Model-1
** Generated by: Abaqus/CAE 2018
*Preprint, echo=NO, model=NO, history=NO, contact=NO
**
** PARTS
**
*Part, name=Part-1
*End Part
**  
**
** ASSEMBLY
**
*Assembly, name=Assembly
**  
*Instance, name=Part-1-1, part=Part-1
*Node
      1,         -35.,         -20.,          12.
      2,         -35.,  -19.2000008,          12.
      3,         -35.,  -18.3999996,          12.
      4,         -35.,  -17.6000004,          12.
      5,         -35.,  -16.7999992,          12.
      6,         -35.,         -16.,          12.
      7,         -35.,         -20.,        11.25
      8,         -35.,  -19.2000008,        11.25
      9,         -35.,  -18.3999996,        11.25
     10,         -35.,  -17.6000004,        11.25
     11,         -35.,  -16.7999992,        11.25
     12,         -35.,         -16.,        11.25
     13,         -35.,         -20.,         10.5
     14,         -35.,  -19.2000008,         10.5
     15,         -35.,  -18.3999996,         10.5
     16,         -35.,  -17.6000004,         10.5
     17,         -35.,  -16.7999992,         10.5
     18,         -35.,         -16.,         10.5
     19,         -35.,         -20.,         9.75
     20,         -35.,  -19.2000008,         9.75
** ... 12832 like lines cut
*Element, type=C3D8R
    1,     7,     8,     2,     1,   109,   110,   104,   103
    2,     8,     9,     3,     2,   110,   111,   105,   104
    3,     9,    10,     4,     3,   111,   112,   106,   105
    4,    10,    11,     5,     4,   112,   113,   107,   106
    5,    11,    12,     6,     5,   113,   114,   108,   107
    6,    13,    14,     8,     7,   115,   116,   110,   109
    7,    14,    15,     9,     8,   116,   117,   111,   110
    8,    15,    16,    10,     9,   117,   118,   112,   111
    9,    16,    17,    11,    10,   118,   119,   113,   112
   10,    17,    18,    12,    11,   119,   120,   114,   113
   11,    19,    20,    14,    13,   121,   122,   116,   115
   12,    20,    21,    15,    14,   122,   123,   117,   116
   13,    21,    22,    16,    15,   123,   124,   118,   117
   14,    22,    23,    17,    16,   124,   125,   119,   118
   15,    23,    24,    18,    17,   125,   126,   120,   119
   16,    25,    26,    20,    19,   127,   128,   122,   121
   17,    26,    27,    21,    20,   128,   129,   123,   122
   18,    27,    28,    22,    21,   129,   130,   124,   123
   19,    28,    29,    23,    22,   130,   131,   125,   124
   20,    29,    30,    24,    23,   131,   132,   126,   125
** ... 9980 like lines cut
*Nset, nset=Set-1, generate
     1,  12852,      1
*Elset, elset=Set-1, generate
     1,  10000,      1
** Section: Section-1
*Solid Section, elset=Set-1, material=Material-1
,
*End Instance
**  
*Nset, nset=Set-1, instance=Part-1-1, generate
  1,  97,   6
*Elset, elset=Set-1, instance=Part-1-1, generate
  1,  76,   5
*Nset, nset=Set-2, instance=Part-1-1, generate
 12751,  12847,      6
*Elset, elset=Set-2, instance=Part-1-1, generate
 9921,  9996,     5
*Elset, elset=_Surf-1_S4, internal, instance=Part-1-1, generate
     5,  10000,      5
*Surface, type=ELEMENT, name=Surf-1
_Surf-1_S4, S4
*End Assembly
** 
** MATERIALS
** 
*Material, name=Material-1
*Elastic
211000., 0.3
** ----------------------------------------------------------------
** 
** STEP: Step-1
** 
*Step, name=Step-1, nlgeom=NO, inc=10000
*Static
0.01, 1., 1e-05, 0.1
** 
** BOUNDARY CONDITIONS
** 
** Name: BC-1 Type: Symmetry/Antisymmetry/Encastre
*Boundary
Set-1, ENCASTRE
** Name: BC-2 Type: Displacement/Rotation
*Boundary
Set-2, 2, 2
Set-2, 3, 3
Set-2, 4, 4
Set-2, 5, 5
Set-2, 6, 6
** 
** LOADS
** 
** Name: Load-1   Type: Pressure
*Dsload
Surf-1, P, 1293.
** 
** OUTPUT REQUESTS
** 
*Restart, write, frequency=0
** 
** FIELD OUTPUT: F-Output-2
** 
*Output, field
*Element Output, directions=YES
S, 
** 
** FIELD OUTPUT: F-Output-1
** 
*Output, field, variable=PRESELECT
** 
** HISTORY OUTPUT: H-Output-1
** 
*Output, history, variable=PRESELECT
*End Step
