*Heading
** Job name: Job-10 Model name: Model-1
** Generated by: Abaqus/CAE 2018
*Preprint, echo=NO, model=NO, history=NO, contact=NO
**
** PARTS
**
*Part, name=Part-1
*End Part
**  
**
** ASSEMBLY
**
*Assembly, name=Assembly
**  
*Instance, name=Part-1-1, part=Part-1
*Node
      1,         -35.,         -20.,          12.
      2,         -35.,         -19.,          12.
      3,         -35.,         -18.,          12.
      4,         -35.,         -17.,          12.
      5,         -35.,         -16.,          12.
      6,         -35.,         -20.,          11.
      7,         -35.,         -19.,          11.
      8,         -35.,         -18.,          11.
      9,         -35.,         -17.,          11.
     10,         -35.,         -16.,          11.
     11,         -35.,         -20.,          10.
     12,         -35.,         -19.,          10.
     13,         -35.,         -18.,          10.
     14,         -35.,         -17.,          10.
     15,         -35.,         -16.,          10.
     16,         -35.,         -20.,           9.
     17,         -35.,         -19.,           9.
     18,         -35.,         -18.,           9.
     19,         -35.,         -17.,           9.
     20,         -35.,         -16.,           9.
** ... 22905 like lines cut
*Element, type=C3D20R
   1,     6,     7,     2,     1,    71,    72,    67,    66,  6179,  6178,  6177,  6176,  6180,  6181,  6182,
       6183,  6185,  6184,  6186,  6187
   2,     7,     8,     3,     2,    72,    73,    68,    67,  6190,  6189,  6188,  6178,  6191,  6192,  6193,
       6181,  6184,  6194,  6195,  6186
   3,     8,     9,     4,     3,    73,    74,    69,    68,  6198,  6197,  6196,  6189,  6199,  6200,  6201,
       6192,  6194,  6202,  6203,  6195
   4,     9,    10,     5,     4,    74,    75,    70,    69,  6206,  6205,  6204,  6197,  6207,  6208,  6209,
       6200,  6202,  6210,  6211,  6203
   5,    11,    12,     7,     6,    76,    77,    72,    71,  6214,  6213,  6179,  6212,  6215,  6216,  6180,
       6217,  6219,  6218,  6184,  6185
   6,    12,    13,     8,     7,    77,    78,    73,    72,  6221,  6220,  6190,  6213,  6222,  6223,  6191,
       6216,  6218,  6224,  6194,  6184
   7,    13,    14,     9,     8,    78,    79,    74,    73,  6226,  6225,  6198,  6220,  6227,  6228,  6199,
       6223,  6224,  6229,  6202,  6194
   8,    14,    15,    10,     9,    79,    80,    75,    74,  6231,  6230,  6206,  6225,  6232,  6233,  6207,
       6228,  6229,  6234,  6210,  6202
   9,    16,    17,    12,    11,    81,    82,    77,    76,  6237,  6236,  6214,  6235,  6238,  6239,  6215,
       6240,  6242,  6241,  6218,  6219
  10,    17,    18,    13,    12,    82,    83,    78,    77,  6244,  6243,  6221,  6236,  6245,  6246,  6222,
       6239,  6241,  6247,  6224,  6218
** ... 9004 like lines cut
*Nset, nset=Set-1, generate
     1,  22925,      1
*Elset, elset=Set-1, generate
    1,  4512,     1
** Section: Section-1
*Solid Section, elset=Set-1, material=Material-1
,
*End Instance
**  
*Nset, nset=Set-1, instance=Part-1-1
    1,    6,   11,   16,   21,   26,   31,   36,   41,   46,   51,   56,   61, 6176, 6212, 6235
 6258, 6281, 6304, 6327, 6350, 6373, 6396, 6419, 6442
*Elset, elset=Set-1, instance=Part-1-1, generate
  1,  45,   4
*Nset, nset=Set-2, instance=Part-1-1
  6111,  6116,  6121,  6126,  6131,  6136,  6141,  6146,  6151,  6156,  6161,  6166,  6171, 22752, 22774, 22788
 22802, 22816, 22830, 22844, 22858, 22872, 22886, 22900, 22914
*Elset, elset=Set-2, instance=Part-1-1, generate
 4465,  4509,     4
*Elset, elset=_Surf-1_S4, internal, instance=Part-1-1, generate
    4,  4512,     4
*Surface, type=ELEMENT, name=Surf-1
_Surf-1_S4, S4
*End Assembly
** 
** MATERIALS
** 
*Material, name=Material-1
*Elastic
211000., 0.3
** ----------------------------------------------------------------
** 
** STEP: Step-1
** 
*Step, name=Step-1, nlgeom=NO, inc=10000
*Static
0.01, 1., 1e-05, 0.1
** 
** BOUNDARY CONDITIONS
** 
** Name: BC-1 Type: Symmetry/Antisymmetry/Encastre
*Boundary
Set-1, ENCASTRE
** Name: BC-2 Type: Displacement/Rotation
*Boundary
Set-2, 2, 2
Set-2, 3, 3
Set-2, 4, 4
Set-2, 5, 5
Set-2, 6, 6
** 
** LOADS
** 
** Name: Load-1   Type: Pressure
*Dsload
Surf-1, P, 1293.
** 
** OUTPUT REQUESTS
** 
*Restart, write, frequency=0
** 
** FIELD OUTPUT: F-Output-2
** 
*Output, field
*Element Output, directions=YES
S, 
** 
** FIELD OUTPUT: F-Output-1
** 
*Output, field, variable=PRESELECT
** 
** HISTORY OUTPUT: H-Output-1
** 
*Output, history, variable=PRESELECT
*End Step
